Version 4
SHEET 1 4052 1844
WIRE 336 352 336 288
WIRE 416 352 336 352
WIRE 1120 352 1120 288
WIRE 1200 352 1120 352
WIRE 1904 384 1872 384
WIRE 2096 384 1984 384
WIRE 336 400 336 352
WIRE 1120 400 1120 352
WIRE 288 416 256 416
WIRE 1072 416 1040 416
WIRE 128 464 16 464
WIRE 288 464 208 464
WIRE 912 464 800 464
WIRE 1072 464 992 464
WIRE 1920 512 1856 512
WIRE 1872 544 1872 384
WIRE 1872 544 1760 544
WIRE 1920 544 1872 544
WIRE 2096 560 2096 384
WIRE 2096 560 2000 560
WIRE 2144 560 2096 560
WIRE 2432 560 2400 560
WIRE 2528 560 2512 560
WIRE 2624 560 2608 560
WIRE 16 576 16 464
WIRE 800 576 800 464
WIRE 2144 656 2144 560
WIRE 2288 656 2144 656
WIRE 2400 656 2400 560
WIRE 2400 656 2368 656
WIRE 16 688 16 656
WIRE 256 688 256 416
WIRE 256 688 16 688
WIRE 336 688 336 480
WIRE 336 688 256 688
WIRE 800 688 800 656
WIRE 1040 688 1040 416
WIRE 1040 688 800 688
WIRE 1120 688 1120 480
WIRE 1120 688 1040 688
WIRE 1904 688 1872 688
WIRE 2096 688 1984 688
WIRE 2448 688 2384 688
WIRE 2400 720 2400 656
WIRE 2448 720 2400 720
WIRE 16 736 16 688
WIRE 800 736 800 688
WIRE 2624 736 2624 560
WIRE 2624 736 2528 736
WIRE 2672 736 2624 736
WIRE 2288 752 2144 752
WIRE 2400 752 2400 720
WIRE 2400 752 2368 752
WIRE 1920 816 1856 816
WIRE 1872 848 1872 688
WIRE 1872 848 1760 848
WIRE 1920 848 1872 848
WIRE 2096 864 2096 688
WIRE 2096 864 2000 864
WIRE 2144 864 2144 752
WIRE 2144 864 2096 864
WIRE 768 1088 768 1024
WIRE 896 1088 896 1024
WIRE 1856 1088 1808 1088
WIRE 1920 1088 1856 1088
WIRE 1920 1120 1888 1120
WIRE 2032 1136 2000 1136
WIRE 2064 1136 2032 1136
WIRE 2192 1136 2144 1136
WIRE 2208 1136 2192 1136
WIRE 2336 1136 2288 1136
WIRE 2400 1136 2336 1136
WIRE 1856 1152 1856 1088
WIRE 2400 1168 2368 1168
WIRE 2512 1184 2480 1184
WIRE 2544 1184 2512 1184
WIRE 1888 1200 1888 1120
WIRE 2032 1200 2032 1136
WIRE 2032 1200 1888 1200
WIRE 2192 1200 2192 1136
WIRE 2336 1200 2336 1136
WIRE 1856 1248 1856 1216
WIRE 2368 1248 2368 1168
WIRE 2512 1248 2512 1184
WIRE 2512 1248 2368 1248
WIRE 2192 1280 2192 1264
WIRE 2368 1280 2368 1248
WIRE 2368 1280 2192 1280
WIRE 2336 1296 2336 1264
WIRE 1072 1472 1072 1456
WIRE 1968 1472 1936 1472
WIRE 2096 1472 2032 1472
WIRE 2112 1472 2096 1472
WIRE 2240 1472 2176 1472
WIRE 2304 1472 2240 1472
WIRE 2304 1504 2272 1504
WIRE 2416 1520 2384 1520
WIRE 2448 1520 2416 1520
WIRE 2096 1536 2096 1472
WIRE 2240 1536 2240 1472
WIRE 3200 1536 3168 1536
WIRE 3296 1536 3264 1536
WIRE 1072 1568 1072 1552
WIRE 1072 1568 976 1568
WIRE 1200 1568 1072 1568
WIRE 976 1584 976 1568
WIRE 1072 1584 1072 1568
WIRE 2272 1584 2272 1504
WIRE 2416 1584 2416 1520
WIRE 2416 1584 2272 1584
WIRE 1200 1600 1168 1600
WIRE 1312 1616 1280 1616
WIRE 1344 1616 1312 1616
WIRE 2096 1632 2096 1616
WIRE 2272 1632 2272 1584
WIRE 2272 1632 2096 1632
WIRE 2240 1648 2240 1616
WIRE 976 1680 976 1648
WIRE 1072 1680 1072 1664
WIRE 1072 1680 976 1680
WIRE 1168 1680 1168 1600
WIRE 1312 1680 1312 1616
WIRE 1312 1680 1168 1680
WIRE 1072 1696 1072 1680
FLAG 16 736 0
FLAG 896 1088 0
FLAG 896 944 Vcc
FLAG 2528 672 Vcc
FLAG 336 208 Vcc
FLAG 480 352 AudioCurrentIn1
FLAG 800 736 0
FLAG 1120 208 Vcc
FLAG 1264 352 AudioCurrentIn2
FLAG 768 1088 0
FLAG 768 1024 Vss
FLAG 2528 704 Vss
FLAG 2000 496 Vcc
FLAG 2000 528 Vss
FLAG 2000 800 Vcc
FLAG 2000 832 Vss
FLAG 1760 544 AudioCurrentIn1
FLAG 1760 848 AudioCurrentIn2
FLAG 1072 1696 0
FLAG 1072 1456 Vcc
FLAG 1344 1616 VOffset
FLAG 1856 512 VOffset
FLAG 1856 816 VOffset
FLAG 2384 688 VOffset
FLAG 2672 736 AudioAverage
FLAG 2000 1072 Vcc
FLAG 2000 1104 Vss
FLAG 1728 1088 AudioAverage
FLAG 1856 1248 0
FLAG 2480 1120 Vcc
FLAG 2480 1152 Vss
FLAG 2336 1296 0
FLAG 2544 1184 AudioLowPassFilter
FLAG 2384 1456 Vcc
FLAG 2384 1488 Vss
FLAG 1936 1472 AudioLowPassFilter
FLAG 2240 1648 VOffset
FLAG 1280 1552 Vcc
FLAG 1280 1584 Vss
FLAG 2448 1520 AudioHighPassFilter
FLAG 3168 1536 AudioHighPassFilter
FLAG 3296 1536 AudioOut
SYMBOL voltage 896 928 R0
SYMATTR InstName V3
SYMATTR Value 3.3V
SYMBOL res 2384 736 R90
WINDOW 0 0 56 VBottom 2
WINDOW 3 32 56 VTop 2
SYMATTR InstName R1
SYMATTR Value 100k
SYMBOL res 2384 640 R90
WINDOW 0 0 56 VBottom 2
WINDOW 3 -56 56 VTop 2
SYMATTR InstName R2
SYMATTR Value 100k
SYMBOL res 2528 544 R90
WINDOW 0 0 56 VBottom 2
WINDOW 3 32 56 VTop 2
SYMATTR InstName R3
SYMATTR Value 50k
SYMBOL g 336 496 M180
SYMATTR InstName G1
SYMATTR Value 2.87µ
SYMBOL voltage 16 560 R0
SYMATTR InstName V5
SYMATTR Value 62V
SYMBOL voltage 112 464 R270
WINDOW 0 32 56 VTop 2
WINDOW 3 -32 56 VBottom 2
WINDOW 123 -60 56 VBottom 2
WINDOW 39 0 0 Left 0
SYMATTR InstName V6
SYMATTR Value SINE(0 0.5 10k)
SYMATTR Value2 AC 0.5
SYMBOL res 320 192 R0
SYMATTR InstName R4
SYMATTR Value 2.2k
SYMBOL cap 480 336 R90
WINDOW 0 0 32 VBottom 2
WINDOW 3 32 32 VTop 2
SYMATTR InstName C5
SYMATTR Value 2.2µF
SYMBOL g 1120 496 M180
SYMATTR InstName G2
SYMATTR Value 2.87µ
SYMBOL voltage 800 560 R0
SYMATTR InstName V7
SYMATTR Value 62V
SYMBOL voltage 896 464 R270
WINDOW 0 32 56 VTop 2
WINDOW 3 -32 56 VBottom 2
WINDOW 123 -60 56 VBottom 2
WINDOW 39 0 0 Left 0
SYMATTR InstName V8
SYMATTR Value SINE(0 0.45 10k)
SYMATTR Value2 AC 0.5
SYMBOL res 1104 192 R0
SYMATTR InstName R9
SYMATTR Value 2.2k
SYMBOL cap 1264 336 R90
WINDOW 0 0 32 VBottom 2
WINDOW 3 32 32 VTop 2
SYMATTR InstName C6
SYMATTR Value 2.2µF
SYMBOL AD8531 2480 704 R0
SYMATTR InstName U1
SYMBOL res 2000 368 R90
WINDOW 0 0 56 VBottom 2
WINDOW 3 32 56 VTop 2
SYMATTR InstName R7
SYMATTR Value 100k
SYMBOL AD8531 1952 528 R0
SYMATTR InstName U2
SYMBOL res 2000 672 R90
WINDOW 0 0 56 VBottom 2
WINDOW 3 32 56 VTop 2
SYMATTR InstName R5
SYMATTR Value 100k
SYMBOL AD8531 1952 832 R0
SYMATTR InstName U3
SYMBOL res 1056 1568 R0
SYMATTR InstName R6
SYMATTR Value 10k
SYMBOL res 1056 1456 R0
SYMATTR InstName R8
SYMATTR Value 10k
SYMBOL cap 960 1584 R0
SYMATTR InstName C1
SYMATTR Value 2.2µF
SYMBOL AD8531 1952 1104 R0
SYMATTR InstName U4
SYMBOL cap 1872 1216 R180
WINDOW 0 24 56 Left 2
WINDOW 3 24 8 Left 2
SYMATTR InstName C2
SYMATTR Value 100pF
SYMBOL res 1824 1072 R90
WINDOW 0 0 56 VBottom 2
WINDOW 3 32 56 VTop 2
SYMATTR InstName R11
SYMATTR Value 80k
SYMBOL AD8531 2432 1152 R0
SYMATTR InstName U5
SYMBOL cap 2352 1264 R180
WINDOW 0 24 56 Left 2
WINDOW 3 24 8 Left 2
SYMATTR InstName C3
SYMATTR Value 100pF
SYMBOL res 2304 1120 R90
WINDOW 0 0 56 VBottom 2
WINDOW 3 32 56 VTop 2
SYMATTR InstName R10
SYMATTR Value 80k
SYMBOL cap 2208 1264 R180
WINDOW 0 24 56 Left 2
WINDOW 3 24 8 Left 2
SYMATTR InstName C4
SYMATTR Value 100pF
SYMBOL res 2160 1120 R90
WINDOW 0 0 56 VBottom 2
WINDOW 3 32 56 VTop 2
SYMATTR InstName R12
SYMATTR Value 80k
SYMBOL AD8531 2336 1488 R0
SYMATTR InstName U7
SYMBOL cap 2112 1488 R270
WINDOW 0 32 32 VTop 2
WINDOW 3 0 32 VBottom 2
SYMATTR InstName C8
SYMATTR Value 100nF
SYMBOL res 2256 1632 R180
WINDOW 0 36 76 Left 2
WINDOW 3 36 40 Left 2
SYMATTR InstName R14
SYMATTR Value 80k
SYMBOL cap 1968 1488 R270
WINDOW 0 32 32 VTop 2
WINDOW 3 0 32 VBottom 2
SYMATTR InstName C9
SYMATTR Value 100nF
SYMBOL res 2112 1632 R180
WINDOW 0 36 76 Left 2
WINDOW 3 36 40 Left 2
SYMATTR InstName R15
SYMATTR Value 80k
SYMBOL AD8531 1232 1584 R0
SYMATTR InstName U6
SYMBOL cap 3264 1520 R90
WINDOW 0 0 32 VBottom 2
WINDOW 3 32 32 VTop 2
SYMATTR InstName C7
SYMATTR Value 2.2µF
SYMBOL res 2624 544 R90
WINDOW 0 0 56 VBottom 2
WINDOW 3 32 56 VTop 2
SYMATTR InstName R13
SYMATTR Value {RPOT}
TEXT 248 1000 Left 2 !.tran 0 1ms 0
TEXT 248 1104 Left 2 !;ac dec 100 1 1000000
TEXT -56 120 Left 2 ;CMC-9745-44P
TEXT 728 120 Left 2 ;CMC-9745-44P
TEXT 1552 320 Left 2 ;1Meg should be great, but the bandwidth of the AOP (3MHz) is limiting us
TEXT 1552 288 Left 2 ;Pre-amp stage (current to voltage)
TEXT 2248 480 Left 2 ;Audio averaging
TEXT 1560 992 Left 2 ;Low-pass filter 20kHz, 3 order
TEXT 928 1392 Left 2 ;Simple Vcc/2 reference for offset
TEXT 1560 1392 Left 2 ;High-pass filter 20Hz, 2 order
TEXT 272 48 Left 2 ;We already have here a ~20Hz+-20Hz high-pass at the microphone output
TEXT 2536 440 Left 2 !.step oct param RPOT 0 500k 10
RECTANGLE Normal 1456 784 736 144 2
RECTANGLE Normal 672 784 -48 144 2
RECTANGLE Normal 2192 928 1552 336 2
RECTANGLE Normal 2848 880 2240 496 2
RECTANGLE Normal 2784 1344 1552 1008 2
RECTANGLE Normal 2784 1744 1552 1408 2
RECTANGLE Normal 1440 1744 928 1408 2
