Version 4
SHEET 1 4052 1088
WIRE 544 160 512 160
WIRE 736 160 624 160
WIRE 400 224 64 224
WIRE 512 224 512 160
WIRE 512 224 480 224
WIRE 64 256 64 224
WIRE 512 272 512 224
WIRE 640 272 512 272
WIRE 736 288 736 160
WIRE 736 288 704 288
WIRE 960 288 736 288
WIRE 640 304 544 304
WIRE 400 320 304 320
WIRE 512 320 512 272
WIRE 512 320 480 320
WIRE 304 384 304 320
WIRE 544 384 544 304
WIRE 64 496 64 336
WIRE 304 544 304 464
WIRE 1824 704 1568 704
WIRE 3152 704 2896 704
WIRE 544 720 544 656
WIRE 720 720 720 656
WIRE 1376 720 1120 720
WIRE 2736 720 2480 720
WIRE 3456 720 3424 720
WIRE 3648 720 3536 720
WIRE 1568 816 1568 704
WIRE 1664 816 1568 816
WIRE 2896 816 2896 704
WIRE 2992 816 2896 816
WIRE 1120 832 1120 720
WIRE 1216 832 1120 832
WIRE 1824 832 1824 704
WIRE 1824 832 1728 832
WIRE 2480 832 2480 720
WIRE 2576 832 2480 832
WIRE 3152 832 3152 704
WIRE 3152 832 3056 832
WIRE 3280 832 3152 832
WIRE 3424 832 3424 720
WIRE 3424 832 3360 832
WIRE 3552 832 3424 832
WIRE 1376 848 1376 720
WIRE 1376 848 1280 848
WIRE 1424 848 1376 848
WIRE 1536 848 1488 848
WIRE 1664 848 1536 848
WIRE 1824 848 1824 832
WIRE 2320 848 1824 848
WIRE 2736 848 2736 720
WIRE 2736 848 2640 848
WIRE 2864 848 2816 848
WIRE 2992 848 2864 848
WIRE 3648 848 3648 720
WIRE 3648 848 3616 848
WIRE 976 864 848 864
WIRE 1088 864 1040 864
WIRE 1216 864 1088 864
WIRE 2320 864 2320 848
WIRE 2448 864 2400 864
WIRE 2576 864 2448 864
WIRE 3552 864 3456 864
WIRE 1536 912 1536 848
WIRE 1088 928 1088 864
WIRE 2864 928 2864 848
WIRE 2448 944 2448 864
WIRE 3456 944 3456 864
WIRE 1536 1040 1536 992
WIRE 2864 1040 2864 992
WIRE 1088 1056 1088 1008
WIRE 2448 1056 2448 1008
FLAG 64 496 0
FLAG 544 384 0
FLAG 544 720 0
FLAG 720 720 0
FLAG 544 576 Vss
FLAG 720 576 Vcc
FLAG 656 320 Vss
FLAG 656 256 Vcc
FLAG 688 320 Vcc
FLAG 1232 880 Vss
FLAG 1232 816 Vcc
FLAG 1264 880 Vcc
FLAG 1088 1056 0
FLAG 848 864 Uout_average
FLAG 960 288 Uout_average
FLAG 2592 880 Vss
FLAG 2592 816 Vcc
FLAG 2624 880 Vcc
FLAG 2448 1056 0
FLAG 3008 864 Vss
FLAG 3008 800 Vcc
FLAG 3040 864 Vcc
FLAG 2864 1040 0
FLAG 1680 864 Vss
FLAG 1680 800 Vcc
FLAG 1712 864 Vcc
FLAG 1536 1040 0
FLAG 3456 944 0
FLAG 3568 880 Vss
FLAG 3568 816 Vcc
FLAG 3600 880 Vcc
FLAG 304 544 0
SYMBOL voltage 64 240 R0
WINDOW 123 24 124 Left 2
WINDOW 39 0 0 Left 0
SYMATTR Value2 AC 1.
SYMATTR InstName V1
SYMATTR Value SINE(0 2.4 4000)
SYMBOL voltage 720 560 R0
SYMATTR InstName V3
SYMATTR Value 5V
SYMBOL voltage 544 560 R0
SYMATTR InstName V4
SYMATTR Value -5V
SYMBOL res 496 304 R90
WINDOW 0 0 56 VBottom 2
WINDOW 3 32 56 VTop 2
SYMATTR InstName R1
SYMATTR Value 20k
SYMBOL res 496 208 R90
WINDOW 0 0 56 VBottom 2
WINDOW 3 32 56 VTop 2
SYMATTR InstName R2
SYMATTR Value 20k
SYMBOL res 640 144 R90
WINDOW 0 0 56 VBottom 2
WINDOW 3 32 56 VTop 2
SYMATTR InstName R3
SYMATTR Value 10k
SYMBOL res 1104 1024 R180
WINDOW 0 36 76 Left 2
WINDOW 3 36 40 Left 2
SYMATTR InstName R7
SYMATTR Value 80k
SYMBOL cap 1040 848 R90
WINDOW 0 0 32 VBottom 2
WINDOW 3 32 32 VTop 2
SYMATTR InstName C1
SYMATTR Value 100nF
SYMBOL res 2304 880 R270
WINDOW 0 32 56 VTop 2
WINDOW 3 0 56 VBottom 2
SYMATTR InstName R5
SYMATTR Value 80k
SYMBOL cap 2464 1008 R180
WINDOW 0 24 56 Left 2
WINDOW 3 24 8 Left 2
SYMATTR InstName C2
SYMATTR Value 100pF
SYMBOL res 2720 864 R270
WINDOW 0 32 56 VTop 2
WINDOW 3 0 56 VBottom 2
SYMATTR InstName R6
SYMATTR Value 80k
SYMBOL cap 2880 992 R180
WINDOW 0 24 56 Left 2
WINDOW 3 24 8 Left 2
SYMATTR InstName C3
SYMATTR Value 100pF
SYMBOL res 1552 1008 R180
WINDOW 0 36 76 Left 2
WINDOW 3 36 40 Left 2
SYMATTR InstName R8
SYMATTR Value 80k
SYMBOL cap 1488 832 R90
WINDOW 0 0 32 VBottom 2
WINDOW 3 32 32 VTop 2
SYMATTR InstName C4
SYMATTR Value 100nF
SYMBOL res 3376 816 R90
WINDOW 0 0 56 VBottom 2
WINDOW 3 32 56 VTop 2
SYMATTR InstName R10
SYMATTR Value 100k
SYMBOL res 3552 704 R90
WINDOW 0 0 56 VBottom 2
WINDOW 3 32 56 VTop 2
SYMATTR InstName R12
SYMATTR Value 400k
SYMBOL OpAmps\\ADA4807-1 672 288 R0
WINDOW 3 62 35 Left 2
SYMATTR InstName U6
SYMBOL OpAmps\\ADA4807-1 1248 848 R0
WINDOW 3 62 35 Left 2
SYMATTR InstName U2
SYMBOL OpAmps\\ADA4807-1 1696 832 R0
WINDOW 3 62 35 Left 2
SYMATTR InstName U1
SYMBOL OpAmps\\ADA4807-1 2608 848 R0
WINDOW 3 62 35 Left 2
SYMATTR InstName U3
SYMBOL OpAmps\\ADA4807-1 3024 832 R0
WINDOW 3 62 35 Left 2
SYMATTR InstName U4
SYMBOL OpAmps\\ADA4807-1 3584 848 R0
WINDOW 3 62 35 Left 2
SYMATTR InstName U5
SYMBOL voltage 304 368 R0
WINDOW 123 24 124 Left 2
WINDOW 39 0 0 Left 0
SYMATTR Value2 AC 1.
SYMATTR InstName V2
SYMATTR Value SINE(0 2.3 4000)
TEXT 32 616 Left 2 !.tran 1ms
TEXT -336 520 Left 2 !;ac dec 1000 1 1000000
