Version 4
SHEET 1 4052 1620
WIRE 544 160 512 160
WIRE 736 160 624 160
WIRE 400 224 64 224
WIRE 512 224 512 160
WIRE 512 224 480 224
WIRE 64 256 64 224
WIRE 512 272 512 224
WIRE 640 272 512 272
WIRE 736 288 736 160
WIRE 736 288 704 288
WIRE 960 288 736 288
WIRE 640 304 544 304
WIRE 400 320 304 320
WIRE 512 320 512 272
WIRE 512 320 480 320
WIRE 304 384 304 320
WIRE 544 384 544 304
WIRE 64 496 64 336
WIRE 304 544 304 464
WIRE 544 720 544 656
WIRE 720 720 720 656
WIRE 2736 880 2480 880
WIRE 2288 896 2032 896
WIRE 3040 896 3008 896
WIRE 3232 896 3120 896
WIRE 1248 928 1056 928
WIRE 1744 928 1584 928
WIRE 2480 992 2480 880
WIRE 2576 992 2480 992
WIRE 2032 1008 2032 896
WIRE 2128 1008 2032 1008
WIRE 2736 1008 2736 880
WIRE 2736 1008 2640 1008
WIRE 2864 1008 2736 1008
WIRE 3008 1008 3008 896
WIRE 3008 1008 2944 1008
WIRE 3136 1008 3008 1008
WIRE 1584 1024 1584 928
WIRE 1632 1024 1584 1024
WIRE 2288 1024 2288 896
WIRE 2288 1024 2192 1024
WIRE 2336 1024 2288 1024
WIRE 2448 1024 2400 1024
WIRE 2576 1024 2448 1024
WIRE 3232 1024 3232 896
WIRE 3232 1024 3200 1024
WIRE 1056 1040 1056 928
WIRE 1136 1040 1056 1040
WIRE 1744 1040 1744 928
WIRE 1744 1040 1696 1040
WIRE 1888 1040 1744 1040
WIRE 2000 1040 1952 1040
WIRE 2128 1040 2000 1040
WIRE 3136 1040 3040 1040
WIRE 1248 1056 1248 928
WIRE 1248 1056 1200 1056
WIRE 1264 1056 1248 1056
WIRE 1392 1056 1344 1056
WIRE 1456 1056 1392 1056
WIRE 1584 1056 1536 1056
WIRE 1632 1056 1584 1056
WIRE 1008 1072 960 1072
WIRE 1136 1072 1008 1072
WIRE 2448 1088 2448 1024
WIRE 2000 1104 2000 1040
WIRE 3040 1120 3040 1040
WIRE 1392 1136 1392 1056
WIRE 1584 1136 1584 1056
WIRE 1008 1152 1008 1072
WIRE 2448 1216 2448 1168
WIRE 2000 1232 2000 1184
WIRE 1584 1248 1584 1200
WIRE 1008 1264 1008 1216
WIRE 1392 1296 1392 1200
WIRE 1744 1296 1744 1040
WIRE 1744 1296 1392 1296
FLAG 64 496 0
FLAG 544 384 0
FLAG 544 720 0
FLAG 720 720 0
FLAG 544 576 Vss
FLAG 720 576 Vcc
FLAG 656 320 Vss
FLAG 656 256 Vcc
FLAG 688 320 Vcc
FLAG 2144 1056 Vss
FLAG 2144 992 Vcc
FLAG 2176 1056 Vcc
FLAG 2000 1232 0
FLAG 960 288 Uout_average
FLAG 2592 1040 Vss
FLAG 2592 976 Vcc
FLAG 2624 1040 Vcc
FLAG 2448 1216 0
FLAG 3040 1120 0
FLAG 3152 1056 Vss
FLAG 3152 992 Vcc
FLAG 3184 1056 Vcc
FLAG 304 544 0
FLAG 1152 1088 Vss
FLAG 1152 1024 Vcc
FLAG 1184 1088 Vcc
FLAG 1008 1264 0
FLAG 880 1072 Uout_average
FLAG 1648 1072 Vss
FLAG 1648 1008 Vcc
FLAG 1680 1072 Vcc
FLAG 1584 1248 0
SYMBOL voltage 64 240 R0
WINDOW 123 24 124 Left 2
WINDOW 39 0 0 Left 0
SYMATTR Value2 AC 1.
SYMATTR InstName V1
SYMATTR Value SINE(0 10mV 4000)
SYMBOL voltage 720 560 R0
SYMATTR InstName V3
SYMATTR Value 5V
SYMBOL voltage 544 560 R0
SYMATTR InstName V4
SYMATTR Value -5V
SYMBOL res 496 304 R90
WINDOW 0 0 56 VBottom 2
WINDOW 3 32 56 VTop 2
SYMATTR InstName R1
SYMATTR Value 2.2k
SYMBOL res 496 208 R90
WINDOW 0 0 56 VBottom 2
WINDOW 3 32 56 VTop 2
SYMATTR InstName R2
SYMATTR Value 2.2k
SYMBOL res 640 144 R90
WINDOW 0 0 56 VBottom 2
WINDOW 3 32 56 VTop 2
SYMATTR InstName R3
SYMATTR Value 100k
SYMBOL res 2016 1200 R180
WINDOW 0 36 76 Left 2
WINDOW 3 36 40 Left 2
SYMATTR InstName R7
SYMATTR Value 80k
SYMBOL cap 1952 1024 R90
WINDOW 0 0 32 VBottom 2
WINDOW 3 32 32 VTop 2
SYMATTR InstName C1
SYMATTR Value 100nF
SYMBOL res 2464 1184 R180
WINDOW 0 36 76 Left 2
WINDOW 3 36 40 Left 2
SYMATTR InstName R8
SYMATTR Value 80k
SYMBOL cap 2400 1008 R90
WINDOW 0 0 32 VBottom 2
WINDOW 3 32 32 VTop 2
SYMATTR InstName C4
SYMATTR Value 100nF
SYMBOL res 2960 992 R90
WINDOW 0 0 56 VBottom 2
WINDOW 3 32 56 VTop 2
SYMATTR InstName R10
SYMATTR Value 100k
SYMBOL res 3136 880 R90
WINDOW 0 0 56 VBottom 2
WINDOW 3 32 56 VTop 2
SYMATTR InstName R12
SYMATTR Value 400k
SYMBOL OpAmps\\ADA4807-1 672 288 R0
WINDOW 3 62 35 Left 2
SYMATTR InstName U6
SYMBOL OpAmps\\ADA4807-1 2160 1024 R0
WINDOW 3 62 35 Left 2
SYMATTR InstName U2
SYMBOL OpAmps\\ADA4807-1 2608 1008 R0
WINDOW 3 62 35 Left 2
SYMATTR InstName U1
SYMBOL OpAmps\\ADA4807-1 3168 1024 R0
WINDOW 3 62 35 Left 2
SYMATTR InstName U5
SYMBOL voltage 304 368 R0
WINDOW 123 24 124 Left 2
WINDOW 39 0 0 Left 0
SYMATTR Value2 AC 1.
SYMATTR InstName V2
SYMATTR Value SINE(0 11mV 4000)
SYMBOL res 864 1088 R270
WINDOW 0 32 56 VTop 2
WINDOW 3 0 56 VBottom 2
SYMATTR InstName R5
SYMATTR Value 80k
SYMBOL cap 1024 1216 R180
WINDOW 0 24 56 Left 2
WINDOW 3 24 8 Left 2
SYMATTR InstName C2
SYMATTR Value 100pF
SYMBOL OpAmps\\ADA4807-1 1168 1056 R0
WINDOW 3 62 35 Left 2
SYMATTR InstName U3
SYMBOL res 1248 1072 R270
WINDOW 0 32 56 VTop 2
WINDOW 3 0 56 VBottom 2
SYMATTR InstName R6
SYMATTR Value 80k
SYMBOL cap 1408 1200 R180
WINDOW 0 24 56 Left 2
WINDOW 3 24 8 Left 2
SYMATTR InstName C3
SYMATTR Value 100pF
SYMBOL OpAmps\\ADA4807-1 1664 1040 R0
WINDOW 3 -58 72 Left 2
SYMATTR InstName U4
SYMBOL res 1440 1072 R270
WINDOW 0 32 56 VTop 2
WINDOW 3 0 56 VBottom 2
SYMATTR InstName R17
SYMATTR Value 80k
SYMBOL cap 1600 1200 R180
WINDOW 0 24 56 Left 2
WINDOW 3 24 8 Left 2
SYMATTR InstName C8
SYMATTR Value 100pF
TEXT 32 616 Left 2 !;tran 1ms
TEXT -336 520 Left 2 !.ac dec 1000 1 1000000
