Version 4
SHEET 1 4052 1620
WIRE 2320 288 2288 288
WIRE 2512 288 2400 288
WIRE 336 352 336 288
WIRE 416 352 336 352
WIRE 1120 352 1120 288
WIRE 1200 352 1120 352
WIRE 2288 352 2288 288
WIRE 2288 352 2256 352
WIRE 336 400 336 352
WIRE 1120 400 1120 352
WIRE 2288 400 2288 352
WIRE 2416 400 2288 400
WIRE 288 416 256 416
WIRE 1072 416 1040 416
WIRE 2512 416 2512 288
WIRE 2512 416 2480 416
WIRE 2736 416 2512 416
WIRE 2416 432 2320 432
WIRE 2288 448 2288 400
WIRE 2288 448 2256 448
WIRE 128 464 16 464
WIRE 288 464 208 464
WIRE 912 464 800 464
WIRE 1072 464 992 464
WIRE 2320 512 2320 432
WIRE 16 576 16 464
WIRE 800 576 800 464
WIRE 1616 576 1616 512
WIRE 1792 576 1792 512
WIRE 16 688 16 656
WIRE 256 688 256 416
WIRE 256 688 16 688
WIRE 336 688 336 480
WIRE 336 688 256 688
WIRE 800 688 800 656
WIRE 1040 688 1040 416
WIRE 1040 688 800 688
WIRE 1120 688 1120 480
WIRE 1120 688 1040 688
WIRE 16 736 16 688
WIRE 800 736 800 688
WIRE 2736 880 2480 880
WIRE 2288 896 2032 896
WIRE 3040 896 3008 896
WIRE 3232 896 3120 896
WIRE 1248 928 1056 928
WIRE 1744 928 1584 928
WIRE 2480 992 2480 880
WIRE 2576 992 2480 992
WIRE 2032 1008 2032 896
WIRE 2128 1008 2032 1008
WIRE 2736 1008 2736 880
WIRE 2736 1008 2640 1008
WIRE 2864 1008 2736 1008
WIRE 3008 1008 3008 896
WIRE 3008 1008 2944 1008
WIRE 3136 1008 3008 1008
WIRE 1584 1024 1584 928
WIRE 1632 1024 1584 1024
WIRE 2288 1024 2288 896
WIRE 2288 1024 2192 1024
WIRE 2336 1024 2288 1024
WIRE 2448 1024 2400 1024
WIRE 2576 1024 2448 1024
WIRE 3232 1024 3232 896
WIRE 3232 1024 3200 1024
WIRE 1056 1040 1056 928
WIRE 1136 1040 1056 1040
WIRE 1744 1040 1744 928
WIRE 1744 1040 1696 1040
WIRE 1888 1040 1744 1040
WIRE 2000 1040 1952 1040
WIRE 2128 1040 2000 1040
WIRE 3136 1040 3040 1040
WIRE 1248 1056 1248 928
WIRE 1248 1056 1200 1056
WIRE 1264 1056 1248 1056
WIRE 1392 1056 1344 1056
WIRE 1456 1056 1392 1056
WIRE 1584 1056 1536 1056
WIRE 1632 1056 1584 1056
WIRE 1008 1072 960 1072
WIRE 1136 1072 1008 1072
WIRE 2448 1088 2448 1024
WIRE 2000 1104 2000 1040
WIRE 3040 1120 3040 1040
WIRE 1392 1136 1392 1056
WIRE 1584 1136 1584 1056
WIRE 1008 1152 1008 1072
WIRE 2448 1216 2448 1168
WIRE 2000 1232 2000 1184
WIRE 1584 1248 1584 1200
WIRE 1008 1264 1008 1216
WIRE 1392 1296 1392 1200
WIRE 1744 1296 1744 1040
WIRE 1744 1296 1392 1296
FLAG 16 736 0
FLAG 2320 512 0
FLAG 1616 576 0
FLAG 1792 576 0
FLAG 1616 432 Vss
FLAG 1792 432 Vcc
FLAG 2432 448 Vss
FLAG 2432 384 Vcc
FLAG 2464 448 Vcc
FLAG 2144 1056 Vss
FLAG 2144 992 Vcc
FLAG 2176 1056 Vcc
FLAG 2000 1232 0
FLAG 2736 416 Uout_average
FLAG 2592 1040 Vss
FLAG 2592 976 Vcc
FLAG 2624 1040 Vcc
FLAG 2448 1216 0
FLAG 3040 1120 0
FLAG 3152 1056 Vss
FLAG 3152 992 Vcc
FLAG 3184 1056 Vcc
FLAG 1152 1088 Vss
FLAG 1152 1024 Vcc
FLAG 1184 1088 Vcc
FLAG 1008 1264 0
FLAG 880 1072 Uout_average
FLAG 1648 1072 Vss
FLAG 1648 1008 Vcc
FLAG 1680 1072 Vcc
FLAG 1584 1248 0
FLAG 336 208 Vcc
FLAG 480 352 Audio_in_1
FLAG 800 736 0
FLAG 1120 208 Vcc
FLAG 1264 352 Audio_in_2
FLAG 2176 352 Audio_in_1
FLAG 2176 448 Audio_in_2
SYMBOL voltage 1792 416 R0
SYMATTR InstName V3
SYMATTR Value 5V
SYMBOL voltage 1616 416 R0
SYMATTR InstName V4
SYMATTR Value -5V
SYMBOL res 2272 432 R90
WINDOW 0 0 56 VBottom 2
WINDOW 3 32 56 VTop 2
SYMATTR InstName R1
SYMATTR Value 2.2k
SYMBOL res 2272 336 R90
WINDOW 0 0 56 VBottom 2
WINDOW 3 32 56 VTop 2
SYMATTR InstName R2
SYMATTR Value 2.2k
SYMBOL res 2416 272 R90
WINDOW 0 0 56 VBottom 2
WINDOW 3 32 56 VTop 2
SYMATTR InstName R3
SYMATTR Value 100k
SYMBOL res 2016 1200 R180
WINDOW 0 36 76 Left 2
WINDOW 3 36 40 Left 2
SYMATTR InstName R7
SYMATTR Value 80k
SYMBOL cap 1952 1024 R90
WINDOW 0 0 32 VBottom 2
WINDOW 3 32 32 VTop 2
SYMATTR InstName C1
SYMATTR Value 100nF
SYMBOL res 2464 1184 R180
WINDOW 0 36 76 Left 2
WINDOW 3 36 40 Left 2
SYMATTR InstName R8
SYMATTR Value 80k
SYMBOL cap 2400 1008 R90
WINDOW 0 0 32 VBottom 2
WINDOW 3 32 32 VTop 2
SYMATTR InstName C4
SYMATTR Value 100nF
SYMBOL res 2960 992 R90
WINDOW 0 0 56 VBottom 2
WINDOW 3 32 56 VTop 2
SYMATTR InstName R10
SYMATTR Value 100k
SYMBOL res 3136 880 R90
WINDOW 0 0 56 VBottom 2
WINDOW 3 32 56 VTop 2
SYMATTR InstName R12
SYMATTR Value 400k
SYMBOL OpAmps\\ADA4807-1 2448 416 R0
WINDOW 3 62 35 Left 2
SYMATTR InstName U6
SYMBOL OpAmps\\ADA4807-1 2160 1024 R0
WINDOW 3 62 35 Left 2
SYMATTR InstName U2
SYMBOL OpAmps\\ADA4807-1 2608 1008 R0
WINDOW 3 62 35 Left 2
SYMATTR InstName U1
SYMBOL OpAmps\\ADA4807-1 3168 1024 R0
WINDOW 3 62 35 Left 2
SYMATTR InstName U5
SYMBOL res 864 1088 R270
WINDOW 0 32 56 VTop 2
WINDOW 3 0 56 VBottom 2
SYMATTR InstName R5
SYMATTR Value 80k
SYMBOL cap 1024 1216 R180
WINDOW 0 24 56 Left 2
WINDOW 3 24 8 Left 2
SYMATTR InstName C2
SYMATTR Value 100pF
SYMBOL OpAmps\\ADA4807-1 1168 1056 R0
WINDOW 3 62 35 Left 2
SYMATTR InstName U3
SYMBOL res 1248 1072 R270
WINDOW 0 32 56 VTop 2
WINDOW 3 0 56 VBottom 2
SYMATTR InstName R6
SYMATTR Value 80k
SYMBOL cap 1408 1200 R180
WINDOW 0 24 56 Left 2
WINDOW 3 24 8 Left 2
SYMATTR InstName C3
SYMATTR Value 100pF
SYMBOL OpAmps\\ADA4807-1 1664 1040 R0
WINDOW 3 -58 72 Left 2
SYMATTR InstName U4
SYMBOL res 1440 1072 R270
WINDOW 0 32 56 VTop 2
WINDOW 3 0 56 VBottom 2
SYMATTR InstName R17
SYMATTR Value 80k
SYMBOL cap 1600 1200 R180
WINDOW 0 24 56 Left 2
WINDOW 3 24 8 Left 2
SYMATTR InstName C8
SYMATTR Value 100pF
SYMBOL g 336 496 M180
SYMATTR InstName G1
SYMATTR Value 2.87µ
SYMBOL voltage 16 560 R0
SYMATTR InstName V5
SYMATTR Value 62V
SYMBOL voltage 112 464 R270
WINDOW 0 32 56 VTop 2
WINDOW 3 -32 56 VBottom 2
SYMATTR InstName V6
SYMATTR Value AC 0.5
SYMBOL res 320 192 R0
SYMATTR InstName R4
SYMATTR Value 2.2k
SYMBOL cap 480 336 R90
WINDOW 0 0 32 VBottom 2
WINDOW 3 32 32 VTop 2
SYMATTR InstName C5
SYMATTR Value 2.2µF
SYMBOL g 1120 496 M180
SYMATTR InstName G2
SYMATTR Value 2.87µ
SYMBOL voltage 800 560 R0
SYMATTR InstName V7
SYMATTR Value 62V
SYMBOL voltage 896 464 R270
WINDOW 0 32 56 VTop 2
WINDOW 3 -32 56 VBottom 2
SYMATTR InstName V8
SYMATTR Value AC 0.5
SYMBOL res 1104 192 R0
SYMATTR InstName R9
SYMATTR Value 2.2k
SYMBOL cap 1264 336 R90
WINDOW 0 0 32 VBottom 2
WINDOW 3 32 32 VTop 2
SYMATTR InstName C6
SYMATTR Value 2.2µF
TEXT 248 1000 Left 2 !;tran 1ms
TEXT 248 1104 Left 2 !.ac dec 1000 1 1000000
TEXT -56 120 Left 2 ;CMC-9745-44P
TEXT 728 120 Left 2 ;CMC-9745-44P
RECTANGLE Normal 624 784 -64 144 2
RECTANGLE Normal 1408 784 720 144 2
