Version 4
SHEET 1 4052 1620
WIRE 336 352 336 288
WIRE 416 352 336 352
WIRE 1120 352 1120 288
WIRE 1200 352 1120 352
WIRE 1904 384 1872 384
WIRE 2096 384 1984 384
WIRE 336 400 336 352
WIRE 1120 400 1120 352
WIRE 288 416 256 416
WIRE 1072 416 1040 416
WIRE 128 464 16 464
WIRE 288 464 208 464
WIRE 912 464 800 464
WIRE 1072 464 992 464
WIRE 1920 512 1888 512
WIRE 2032 528 2000 528
WIRE 1872 544 1872 384
WIRE 1872 544 1760 544
WIRE 1920 544 1872 544
WIRE 2096 560 2096 384
WIRE 2096 560 2000 560
WIRE 2144 560 2096 560
WIRE 2432 560 2400 560
WIRE 2624 560 2512 560
WIRE 16 576 16 464
WIRE 800 576 800 464
WIRE 1888 624 1888 512
WIRE 2144 656 2144 560
WIRE 2288 656 2144 656
WIRE 2400 656 2400 560
WIRE 2400 656 2368 656
WIRE 16 688 16 656
WIRE 256 688 256 416
WIRE 256 688 16 688
WIRE 336 688 336 480
WIRE 336 688 256 688
WIRE 800 688 800 656
WIRE 1040 688 1040 416
WIRE 1040 688 800 688
WIRE 1120 688 1120 480
WIRE 1120 688 1040 688
WIRE 1904 688 1872 688
WIRE 2096 688 1984 688
WIRE 2448 688 2416 688
WIRE 2560 704 2528 704
WIRE 2400 720 2400 656
WIRE 2448 720 2400 720
WIRE 16 736 16 688
WIRE 800 736 800 688
WIRE 2624 736 2624 560
WIRE 2624 736 2528 736
WIRE 2672 736 2624 736
WIRE 2288 752 2144 752
WIRE 2400 752 2400 720
WIRE 2400 752 2368 752
WIRE 2416 800 2416 688
WIRE 1920 816 1888 816
WIRE 2032 832 2000 832
WIRE 1872 848 1872 688
WIRE 1872 848 1760 848
WIRE 1920 848 1872 848
WIRE 2096 864 2096 688
WIRE 2096 864 2000 864
WIRE 2144 864 2144 752
WIRE 2144 864 2096 864
WIRE 1888 928 1888 816
WIRE 944 1088 944 1024
WIRE 1072 1088 1072 1024
FLAG 16 736 0
FLAG 2416 800 0
FLAG 1072 1088 0
FLAG 1072 944 Vcc
FLAG 2528 672 Vcc
FLAG 336 208 Vcc
FLAG 480 352 AudioCurrentIn1
FLAG 800 736 0
FLAG 1120 208 Vcc
FLAG 1264 352 AudioCurrentIn2
FLAG 944 1088 0
FLAG 944 944 Vccn
FLAG 2560 704 Vccn
FLAG 1888 624 0
FLAG 2000 496 Vcc
FLAG 2032 528 Vccn
FLAG 1888 928 0
FLAG 2000 800 Vcc
FLAG 2032 832 Vccn
FLAG 1760 544 AudioCurrentIn1
FLAG 1760 848 AudioCurrentIn2
SYMBOL voltage 1072 928 R0
SYMATTR InstName V3
SYMATTR Value 3.3V
SYMBOL res 2384 736 R90
WINDOW 0 0 56 VBottom 2
WINDOW 3 32 56 VTop 2
SYMATTR InstName R1
SYMATTR Value 100k
SYMBOL res 2384 640 R90
WINDOW 0 0 56 VBottom 2
WINDOW 3 32 56 VTop 2
SYMATTR InstName R2
SYMATTR Value 100k
SYMBOL res 2528 544 R90
WINDOW 0 0 56 VBottom 2
WINDOW 3 32 56 VTop 2
SYMATTR InstName R3
SYMATTR Value 50k
SYMBOL g 336 496 M180
SYMATTR InstName G1
SYMATTR Value 2.87µ
SYMBOL voltage 16 560 R0
SYMATTR InstName V5
SYMATTR Value 62V
SYMBOL voltage 112 464 R270
WINDOW 0 32 56 VTop 2
WINDOW 3 -32 56 VBottom 2
WINDOW 123 -60 56 VBottom 2
WINDOW 39 0 0 Left 0
SYMATTR InstName V6
SYMATTR Value SINE(0 0.5 10k)
SYMATTR Value2 AC 0.5
SYMBOL res 320 192 R0
SYMATTR InstName R4
SYMATTR Value 2.2k
SYMBOL cap 480 336 R90
WINDOW 0 0 32 VBottom 2
WINDOW 3 32 32 VTop 2
SYMATTR InstName C5
SYMATTR Value 2.2µF
SYMBOL g 1120 496 M180
SYMATTR InstName G2
SYMATTR Value 2.87µ
SYMBOL voltage 800 560 R0
SYMATTR InstName V7
SYMATTR Value 62V
SYMBOL voltage 896 464 R270
WINDOW 0 32 56 VTop 2
WINDOW 3 -32 56 VBottom 2
WINDOW 123 -60 56 VBottom 2
WINDOW 39 0 0 Left 0
SYMATTR InstName V8
SYMATTR Value SINE(0 0.45 10k)
SYMATTR Value2 AC 0.5
SYMBOL res 1104 192 R0
SYMATTR InstName R9
SYMATTR Value 2.2k
SYMBOL cap 1264 336 R90
WINDOW 0 0 32 VBottom 2
WINDOW 3 32 32 VTop 2
SYMATTR InstName C6
SYMATTR Value 2.2µF
SYMBOL AD8531 2480 704 R0
SYMATTR InstName U1
SYMBOL voltage 944 928 R0
SYMATTR InstName V1
SYMATTR Value -3.3V
SYMBOL res 2000 368 R90
WINDOW 0 0 56 VBottom 2
WINDOW 3 32 56 VTop 2
SYMATTR InstName R7
SYMATTR Value 1Meg
SYMBOL AD8531 1952 528 R0
SYMATTR InstName U2
SYMBOL res 2000 672 R90
WINDOW 0 0 56 VBottom 2
WINDOW 3 32 56 VTop 2
SYMATTR InstName R5
SYMATTR Value 1Meg
SYMBOL AD8531 1952 832 R0
SYMATTR InstName U3
TEXT 248 1000 Left 2 !.tran 0 1ms 0
TEXT 248 1104 Left 2 !;ac dec 1000 1 1000000
TEXT -56 120 Left 2 ;CMC-9745-44P
TEXT 728 120 Left 2 ;CMC-9745-44P
RECTANGLE Normal 624 784 -64 144 2
RECTANGLE Normal 1408 784 720 144 2
